<?xml version="1.0" encoding="UTF-8"?>

<!-- generated on 2023-11-25 01:21:52 by Eclipse SUMO netedit Version 1.19.0
<configuration xmlns:xsi="http://www.w3.org/2001/XMLSchema-instance" xsi:noNamespaceSchemaLocation="http://sumo.dlr.de/xsd/neteditConfiguration.xsd">

    <input>
        <sumo-net-file value="C:\Users\ceenu\Documents\SUMO_files\SUMOtrial2\NETWORK.net.xml"/>
    </input>

    <output>
        <output-file value="C:\Users\ceenu\Documents\SUMO_files\SUMOtrial2\NETWORK.net.xml"/>
    </output>

    <processing>
        <geometry.min-radius.fix.railways value="false"/>
        <geometry.max-grade.fix value="false"/>
        <offset.disable-normalization value="true"/>
        <lefthand value="0"/>
    </processing>

    <junctions>
        <no-turnarounds value="true"/>
        <junctions.corner-detail value="5"/>
        <junctions.limit-turn-speed value="5.50"/>
        <rectangular-lane-cut value="0"/>
    </junctions>

    <pedestrian>
        <walkingareas value="0"/>
    </pedestrian>

</configuration>
-->

<net version="1.16" junctionCornerDetail="5" limitTurnSpeed="5.50" xmlns:xsi="http://www.w3.org/2001/XMLSchema-instance" xsi:noNamespaceSchemaLocation="http://sumo.dlr.de/xsd/net_file.xsd">

    <location netOffset="0.00,0.00" convBoundary="300.00,300.00,600.00,600.00" origBoundary="-10000000000.00,-10000000000.00,10000000000.00,10000000000.00" projParameter="!"/>

    <edge id=":J10_0" function="internal">
        <lane id=":J10_0_0" index="0" speed="6.51" length="9.03" shape="410.40,404.80 407.95,405.15 406.20,406.20 405.15,407.95 404.80,410.40"/>
    </edge>
    <edge id=":J10_1" function="internal">
        <lane id=":J10_1_0" index="0" speed="13.89" length="20.80" shape="410.40,404.80 389.60,404.80"/>
        <lane id=":J10_1_1" index="1" speed="13.89" length="20.80" shape="410.40,401.60 389.60,401.60"/>
    </edge>
    <edge id=":J10_3" function="internal">
        <lane id=":J10_3_0" index="0" speed="9.26" length="5.01" shape="410.40,401.60 405.44,400.89"/>
    </edge>
    <edge id=":J10_14" function="internal">
        <lane id=":J10_14_0" index="0" speed="9.26" length="14.34" shape="405.44,400.89 405.15,400.85 401.40,398.60 399.15,394.85 398.40,389.60"/>
    </edge>
    <edge id=":J10_4" function="internal">
        <lane id=":J10_4_0" index="0" speed="6.51" length="9.03" shape="404.80,389.60 405.15,392.05 406.20,393.80 407.95,394.85 410.40,395.20"/>
        <lane id=":J10_4_1" index="1" speed="7.33" length="11.73" shape="404.80,389.60 405.15,393.45 406.20,396.20 407.95,397.85 410.40,398.40"/>
    </edge>
    <edge id=":J10_6" function="internal">
        <lane id=":J10_6_0" index="0" speed="13.89" length="20.80" shape="404.80,389.60 404.80,410.40"/>
        <lane id=":J10_6_1" index="1" speed="13.89" length="20.80" shape="401.60,389.60 401.60,410.40"/>
    </edge>
    <edge id=":J10_8" function="internal">
        <lane id=":J10_8_0" index="0" speed="9.84" length="21.99" shape="401.60,389.60 400.85,396.25 398.60,401.00 394.85,403.85 389.60,404.80"/>
        <lane id=":J10_8_1" index="1" speed="9.26" length="19.35" shape="401.60,389.60 400.85,394.85 398.60,398.60 394.85,400.85 389.60,401.60"/>
    </edge>
    <edge id=":J10_10" function="internal">
        <lane id=":J10_10_0" index="0" speed="6.51" length="9.03" shape="389.60,395.20 392.05,394.85 393.80,393.80 394.85,392.05 395.20,389.60"/>
    </edge>
    <edge id=":J10_11" function="internal">
        <lane id=":J10_11_0" index="0" speed="13.89" length="20.80" shape="389.60,395.20 410.40,395.20"/>
        <lane id=":J10_11_1" index="1" speed="13.89" length="20.80" shape="389.60,398.40 410.40,398.40"/>
    </edge>
    <edge id=":J10_13" function="internal">
        <lane id=":J10_13_0" index="0" speed="9.26" length="5.01" shape="389.60,398.40 394.56,399.11"/>
    </edge>
    <edge id=":J10_15" function="internal">
        <lane id=":J10_15_0" index="0" speed="9.26" length="14.34" shape="394.56,399.11 394.85,399.15 398.60,401.40 400.85,405.15 401.60,410.40"/>
    </edge>
    <edge id=":J11_0" function="internal">
        <lane id=":J11_0_0" index="0" speed="6.51" length="9.03" shape="495.20,410.40 494.85,407.95 493.80,406.20 492.05,405.15 489.60,404.80"/>
    </edge>
    <edge id=":J11_1" function="internal">
        <lane id=":J11_1_0" index="0" speed="13.89" length="20.80" shape="495.20,410.40 495.20,389.60"/>
        <lane id=":J11_1_1" index="1" speed="13.89" length="20.80" shape="498.40,410.40 498.40,389.60"/>
    </edge>
    <edge id=":J11_3" function="internal">
        <lane id=":J11_3_0" index="0" speed="9.26" length="5.01" shape="498.40,410.40 499.11,405.44"/>
    </edge>
    <edge id=":J11_16" function="internal">
        <lane id=":J11_16_0" index="0" speed="9.26" length="14.34" shape="499.11,405.44 499.15,405.15 501.40,401.40 505.15,399.15 510.40,398.40"/>
    </edge>
    <edge id=":J11_4" function="internal">
        <lane id=":J11_4_0" index="0" speed="6.51" length="9.03" shape="510.40,404.80 507.95,405.15 506.20,406.20 505.15,407.95 504.80,410.40"/>
    </edge>
    <edge id=":J11_5" function="internal">
        <lane id=":J11_5_0" index="0" speed="13.89" length="20.80" shape="510.40,404.80 489.60,404.80"/>
        <lane id=":J11_5_1" index="1" speed="13.89" length="20.80" shape="510.40,401.60 489.60,401.60"/>
    </edge>
    <edge id=":J11_7" function="internal">
        <lane id=":J11_7_0" index="0" speed="9.26" length="5.01" shape="510.40,401.60 505.44,400.89"/>
    </edge>
    <edge id=":J11_17" function="internal">
        <lane id=":J11_17_0" index="0" speed="9.26" length="14.34" shape="505.44,400.89 505.15,400.85 501.40,398.60 499.15,394.85 498.40,389.60"/>
    </edge>
    <edge id=":J11_8" function="internal">
        <lane id=":J11_8_0" index="0" speed="6.51" length="9.03" shape="504.80,389.60 505.15,392.05 506.20,393.80 507.95,394.85 510.40,395.20"/>
    </edge>
    <edge id=":J11_9" function="internal">
        <lane id=":J11_9_0" index="0" speed="13.89" length="20.80" shape="504.80,389.60 504.80,410.40"/>
        <lane id=":J11_9_1" index="1" speed="13.89" length="20.80" shape="501.60,389.60 501.60,410.40"/>
    </edge>
    <edge id=":J11_11" function="internal">
        <lane id=":J11_11_0" index="0" speed="9.26" length="5.01" shape="501.60,389.60 500.89,394.56"/>
    </edge>
    <edge id=":J11_18" function="internal">
        <lane id=":J11_18_0" index="0" speed="9.26" length="14.34" shape="500.89,394.56 500.85,394.85 498.60,398.60 494.85,400.85 489.60,401.60"/>
    </edge>
    <edge id=":J11_12" function="internal">
        <lane id=":J11_12_0" index="0" speed="6.51" length="9.03" shape="489.60,395.20 492.05,394.85 493.80,393.80 494.85,392.05 495.20,389.60"/>
    </edge>
    <edge id=":J11_13" function="internal">
        <lane id=":J11_13_0" index="0" speed="13.89" length="20.80" shape="489.60,395.20 510.40,395.20"/>
        <lane id=":J11_13_1" index="1" speed="13.89" length="20.80" shape="489.60,398.40 510.40,398.40"/>
    </edge>
    <edge id=":J11_15" function="internal">
        <lane id=":J11_15_0" index="0" speed="9.26" length="5.01" shape="489.60,398.40 494.56,399.11"/>
    </edge>
    <edge id=":J11_19" function="internal">
        <lane id=":J11_19_0" index="0" speed="9.26" length="14.34" shape="494.56,399.11 494.85,399.15 498.60,401.40 500.85,405.15 501.60,410.40"/>
    </edge>
    <edge id=":J15_0" function="internal">
        <lane id=":J15_0_0" index="0" speed="13.89" length="20.80" shape="510.40,604.80 489.60,604.80"/>
        <lane id=":J15_0_1" index="1" speed="13.89" length="20.80" shape="510.40,601.60 489.60,601.60"/>
    </edge>
    <edge id=":J15_2" function="internal">
        <lane id=":J15_2_0" index="0" speed="9.26" length="5.01" shape="510.40,601.60 505.44,600.89"/>
    </edge>
    <edge id=":J15_9" function="internal">
        <lane id=":J15_9_0" index="0" speed="9.26" length="14.34" shape="505.44,600.89 505.15,600.85 501.40,598.60 499.15,594.85 498.40,589.60"/>
    </edge>
    <edge id=":J15_3" function="internal">
        <lane id=":J15_3_0" index="0" speed="6.51" length="9.03" shape="504.80,589.60 505.15,592.05 506.20,593.80 507.95,594.85 510.40,595.20"/>
        <lane id=":J15_3_1" index="1" speed="8.00" length="14.19" shape="501.60,589.60 502.15,593.45 503.80,596.20 506.55,597.85 510.40,598.40"/>
    </edge>
    <edge id=":J15_5" function="internal">
        <lane id=":J15_5_0" index="0" speed="9.26" length="19.35" shape="501.60,589.60 500.85,594.85 498.60,598.60 494.85,600.85 489.60,601.60"/>
    </edge>
    <edge id=":J15_6" function="internal">
        <lane id=":J15_6_0" index="0" speed="6.51" length="9.03" shape="489.60,595.20 492.05,594.85 493.80,593.80 494.85,592.05 495.20,589.60"/>
    </edge>
    <edge id=":J15_7" function="internal">
        <lane id=":J15_7_0" index="0" speed="13.89" length="20.80" shape="489.60,595.20 510.40,595.20"/>
        <lane id=":J15_7_1" index="1" speed="13.89" length="20.80" shape="489.60,598.40 510.40,598.40"/>
    </edge>
    <edge id=":J16_0" function="internal">
        <lane id=":J16_0_0" index="0" speed="8.96" length="18.06" shape="406.40,604.80 401.50,604.10 398.00,602.00 395.90,598.50 395.20,593.60"/>
        <lane id=":J16_0_1" index="1" speed="7.66" length="12.90" shape="406.40,601.60 402.90,601.10 400.40,599.60 398.90,597.10 398.40,593.60"/>
    </edge>
    <edge id=":J16_2" function="internal">
        <lane id=":J16_2_0" index="0" speed="3.90" length="2.58" shape="404.80,593.60 404.90,594.30 405.20,594.80 405.70,595.10 406.40,595.20"/>
        <lane id=":J16_2_1" index="1" speed="6.08" length="7.74" shape="401.60,593.60 401.90,595.70 402.80,597.20 404.30,598.10 406.40,598.40"/>
    </edge>
    <edge id=":J18_0" function="internal">
        <lane id=":J18_0_0" index="0" speed="8.96" length="18.06" shape="604.80,593.60 604.10,598.50 602.00,602.00 598.50,604.10 593.60,604.80"/>
        <lane id=":J18_0_1" index="1" speed="7.66" length="12.90" shape="601.60,593.60 601.10,597.10 599.60,599.60 597.10,601.10 593.60,601.60"/>
    </edge>
    <edge id=":J18_2" function="internal">
        <lane id=":J18_2_0" index="0" speed="3.90" length="2.58" shape="593.60,595.20 594.30,595.10 594.80,594.80 595.10,594.30 595.20,593.60"/>
        <lane id=":J18_2_1" index="1" speed="6.08" length="7.74" shape="593.60,598.40 595.70,598.10 597.20,597.20 598.10,595.70 598.40,593.60"/>
    </edge>
    <edge id=":J23_0" function="internal">
        <lane id=":J23_0_0" index="0" speed="13.89" length="20.80" shape="295.20,410.40 295.20,389.60"/>
        <lane id=":J23_0_1" index="1" speed="13.89" length="20.80" shape="298.40,410.40 298.40,389.60"/>
    </edge>
    <edge id=":J23_2" function="internal">
        <lane id=":J23_2_0" index="0" speed="9.84" length="21.99" shape="298.40,410.40 299.15,403.75 301.40,399.00 305.15,396.15 310.40,395.20"/>
        <lane id=":J23_2_1" index="1" speed="9.26" length="19.35" shape="298.40,410.40 299.15,405.15 301.40,401.40 305.15,399.15 310.40,398.40"/>
    </edge>
    <edge id=":J23_4" function="internal">
        <lane id=":J23_4_0" index="0" speed="6.51" length="9.03" shape="310.40,404.80 307.95,405.15 306.20,406.20 305.15,407.95 304.80,410.40"/>
    </edge>
    <edge id=":J25_0" function="internal">
        <lane id=":J25_0_0" index="0" speed="8.96" length="18.06" shape="295.20,306.40 295.90,301.50 298.00,298.00 301.50,295.90 306.40,295.20"/>
        <lane id=":J25_0_1" index="1" speed="7.66" length="12.90" shape="298.40,306.40 298.90,302.90 300.40,300.40 302.90,298.90 306.40,298.40"/>
    </edge>
    <edge id=":J25_2" function="internal">
        <lane id=":J25_2_0" index="0" speed="3.90" length="2.58" shape="306.40,304.80 305.70,304.90 305.20,305.20 304.90,305.70 304.80,306.40"/>
        <lane id=":J25_2_1" index="1" speed="6.08" length="7.74" shape="306.40,301.60 304.30,301.90 302.80,302.80 301.90,304.30 301.60,306.40"/>
    </edge>
    <edge id=":J26_0" function="internal">
        <lane id=":J26_0_0" index="0" speed="8.96" length="18.06" shape="306.40,504.80 301.50,504.10 298.00,502.00 295.90,498.50 295.20,493.60"/>
        <lane id=":J26_0_1" index="1" speed="7.66" length="12.90" shape="306.40,501.60 302.90,501.10 300.40,499.60 298.90,497.10 298.40,493.60"/>
    </edge>
    <edge id=":J26_2" function="internal">
        <lane id=":J26_2_0" index="0" speed="3.90" length="2.58" shape="304.80,493.60 304.90,494.30 305.20,494.80 305.70,495.10 306.40,495.20"/>
        <lane id=":J26_2_1" index="1" speed="6.08" length="7.74" shape="301.60,493.60 301.90,495.70 302.80,497.20 304.30,498.10 306.40,498.40"/>
    </edge>
    <edge id=":J3_0" function="internal">
        <lane id=":J3_0_0" index="0" speed="13.89" length="20.80" shape="389.60,295.20 410.40,295.20"/>
        <lane id=":J3_0_1" index="1" speed="13.89" length="20.80" shape="389.60,298.40 410.40,298.40"/>
    </edge>
    <edge id=":J3_2" function="internal">
        <lane id=":J3_2_0" index="0" speed="9.26" length="19.35" shape="389.60,298.40 394.85,299.15 398.60,301.40 400.85,305.15 401.60,310.40"/>
    </edge>
    <edge id=":J4_0" function="internal">
        <lane id=":J4_0_0" index="0" speed="6.51" length="9.03" shape="495.20,310.40 494.85,307.95 493.80,306.20 492.05,305.15 489.60,304.80"/>
        <lane id=":J4_0_1" index="1" speed="8.00" length="14.19" shape="498.40,310.40 497.85,306.55 496.20,303.80 493.45,302.15 489.60,301.60"/>
    </edge>
    <edge id=":J4_2" function="internal">
        <lane id=":J4_2_0" index="0" speed="9.26" length="19.35" shape="498.40,310.40 499.15,305.15 501.40,301.40 505.15,299.15 510.40,298.40"/>
    </edge>
    <edge id=":J4_3" function="internal">
        <lane id=":J4_3_0" index="0" speed="6.51" length="9.03" shape="510.40,304.80 507.95,305.15 506.20,306.20 505.15,307.95 504.80,310.40"/>
    </edge>
    <edge id=":J4_4" function="internal">
        <lane id=":J4_4_0" index="0" speed="13.89" length="20.80" shape="510.40,304.80 489.60,304.80"/>
    </edge>
    <edge id=":J4_5" function="internal">
        <lane id=":J4_5_0" index="0" speed="5.58" length="6.08" shape="510.40,304.80 506.80,302.40 506.02,300.83"/>
    </edge>
    <edge id=":J4_6" function="internal">
        <lane id=":J4_6_0" index="0" speed="13.89" length="20.80" shape="510.40,301.60 489.60,301.60"/>
    </edge>
    <edge id=":J4_7" function="internal">
        <lane id=":J4_7_0" index="0" speed="3.65" length="1.44" shape="510.40,301.60 509.20,300.80"/>
    </edge>
    <edge id=":J4_11" function="internal">
        <lane id=":J4_11_0" index="0" speed="5.58" length="7.94" shape="506.02,300.83 505.60,300.00 506.80,297.60 510.40,295.20"/>
    </edge>
    <edge id=":J4_12" function="internal">
        <lane id=":J4_12_0" index="0" speed="3.65" length="3.23" shape="509.20,300.80 508.80,300.00 509.20,299.20 510.40,298.40"/>
    </edge>
    <edge id=":J4_8" function="internal">
        <lane id=":J4_8_0" index="0" speed="13.89" length="20.80" shape="489.60,295.20 510.40,295.20"/>
        <lane id=":J4_8_1" index="1" speed="13.89" length="20.80" shape="489.60,298.40 510.40,298.40"/>
    </edge>
    <edge id=":J4_10" function="internal">
        <lane id=":J4_10_0" index="0" speed="9.26" length="5.01" shape="489.60,298.40 494.56,299.11"/>
    </edge>
    <edge id=":J4_13" function="internal">
        <lane id=":J4_13_0" index="0" speed="9.26" length="14.34" shape="494.56,299.11 494.85,299.15 498.60,301.40 500.85,305.15 501.60,310.40"/>
    </edge>
    <edge id=":J5_0" function="internal">
        <lane id=":J5_0_0" index="0" speed="3.90" length="2.58" shape="595.20,306.40 595.10,305.70 594.80,305.20 594.30,304.90 593.60,304.80"/>
        <lane id=":J5_0_1" index="1" speed="6.08" length="7.74" shape="598.40,306.40 598.10,304.30 597.20,302.80 595.70,301.90 593.60,301.60"/>
    </edge>
    <edge id=":J5_2" function="internal">
        <lane id=":J5_2_0" index="0" speed="8.96" length="18.06" shape="593.60,295.20 598.50,295.90 602.00,298.00 604.10,301.50 604.80,306.40"/>
        <lane id=":J5_2_1" index="1" speed="7.66" length="12.90" shape="593.60,298.40 597.10,298.90 599.60,300.40 601.10,302.90 601.60,306.40"/>
    </edge>
    <edge id=":J6_0" function="internal">
        <lane id=":J6_0_0" index="0" speed="6.51" length="9.03" shape="595.20,410.40 594.85,407.95 593.80,406.20 592.05,405.15 589.60,404.80"/>
    </edge>
    <edge id=":J6_1" function="internal">
        <lane id=":J6_1_0" index="0" speed="13.89" length="20.80" shape="595.20,410.40 595.20,389.60"/>
        <lane id=":J6_1_1" index="1" speed="13.89" length="20.80" shape="598.40,410.40 598.40,389.60"/>
    </edge>
    <edge id=":J6_3" function="internal">
        <lane id=":J6_3_0" index="0" speed="13.89" length="20.80" shape="604.80,389.60 604.80,410.40"/>
        <lane id=":J6_3_1" index="1" speed="13.89" length="20.80" shape="601.60,389.60 601.60,410.40"/>
    </edge>
    <edge id=":J6_5" function="internal">
        <lane id=":J6_5_0" index="0" speed="9.26" length="5.01" shape="601.60,389.60 600.89,394.56"/>
    </edge>
    <edge id=":J6_9" function="internal">
        <lane id=":J6_9_0" index="0" speed="9.26" length="14.34" shape="600.89,394.56 600.85,394.85 598.60,398.60 594.85,400.85 589.60,401.60"/>
    </edge>
    <edge id=":J6_6" function="internal">
        <lane id=":J6_6_0" index="0" speed="6.51" length="9.03" shape="589.60,395.20 592.05,394.85 593.80,393.80 594.85,392.05 595.20,389.60"/>
        <lane id=":J6_6_1" index="1" speed="8.00" length="14.19" shape="589.60,398.40 593.45,397.85 596.20,396.20 597.85,393.45 598.40,389.60"/>
    </edge>
    <edge id=":J6_8" function="internal">
        <lane id=":J6_8_0" index="0" speed="9.26" length="19.35" shape="589.60,398.40 594.85,399.15 598.60,401.40 600.85,405.15 601.60,410.40"/>
    </edge>
    <edge id=":J7_0" function="internal">
        <lane id=":J7_0_0" index="0" speed="6.51" length="9.03" shape="595.20,510.40 594.85,507.95 593.80,506.20 592.05,505.15 589.60,504.80"/>
    </edge>
    <edge id=":J7_1" function="internal">
        <lane id=":J7_1_0" index="0" speed="13.89" length="20.80" shape="595.20,510.40 595.20,489.60"/>
        <lane id=":J7_1_1" index="1" speed="13.89" length="20.80" shape="598.40,510.40 598.40,489.60"/>
    </edge>
    <edge id=":J7_3" function="internal">
        <lane id=":J7_3_0" index="0" speed="13.89" length="20.80" shape="604.80,489.60 604.80,510.40"/>
        <lane id=":J7_3_1" index="1" speed="13.89" length="20.80" shape="601.60,489.60 601.60,510.40"/>
    </edge>
    <edge id=":J7_5" function="internal">
        <lane id=":J7_5_0" index="0" speed="9.26" length="5.01" shape="601.60,489.60 600.89,494.56"/>
    </edge>
    <edge id=":J7_8" function="internal">
        <lane id=":J7_8_0" index="0" speed="9.26" length="14.34" shape="600.89,494.56 600.85,494.85 598.60,498.60 594.85,500.85 589.60,501.60"/>
    </edge>
    <edge id=":J7_6" function="internal">
        <lane id=":J7_6_0" index="0" speed="6.51" length="9.03" shape="589.60,495.20 592.05,494.85 593.80,493.80 594.85,492.05 595.20,489.60"/>
    </edge>
    <edge id=":J7_7" function="internal">
        <lane id=":J7_7_0" index="0" speed="9.26" length="19.35" shape="589.60,498.40 594.85,499.15 598.60,501.40 600.85,505.15 601.60,510.40"/>
    </edge>
    <edge id=":J8_0" function="internal">
        <lane id=":J8_0_0" index="0" speed="6.51" length="9.03" shape="495.20,510.40 494.85,507.95 493.80,506.20 492.05,505.15 489.60,504.80"/>
    </edge>
    <edge id=":J8_1" function="internal">
        <lane id=":J8_1_0" index="0" speed="13.89" length="20.80" shape="495.20,510.40 495.20,489.60"/>
        <lane id=":J8_1_1" index="1" speed="13.89" length="20.80" shape="498.40,510.40 498.40,489.60"/>
    </edge>
    <edge id=":J8_3" function="internal">
        <lane id=":J8_3_0" index="0" speed="9.26" length="5.01" shape="498.40,510.40 499.11,505.44"/>
    </edge>
    <edge id=":J8_16" function="internal">
        <lane id=":J8_16_0" index="0" speed="9.26" length="14.34" shape="499.11,505.44 499.15,505.15 501.40,501.40 505.15,499.15 510.40,498.40"/>
    </edge>
    <edge id=":J8_4" function="internal">
        <lane id=":J8_4_0" index="0" speed="6.51" length="9.03" shape="510.40,504.80 507.95,505.15 506.20,506.20 505.15,507.95 504.80,510.40"/>
    </edge>
    <edge id=":J8_5" function="internal">
        <lane id=":J8_5_0" index="0" speed="13.89" length="20.80" shape="510.40,504.80 489.60,504.80"/>
        <lane id=":J8_5_1" index="1" speed="13.89" length="20.80" shape="510.40,501.60 489.60,501.60"/>
    </edge>
    <edge id=":J8_7" function="internal">
        <lane id=":J8_7_0" index="0" speed="9.26" length="5.01" shape="510.40,501.60 505.44,500.89"/>
    </edge>
    <edge id=":J8_17" function="internal">
        <lane id=":J8_17_0" index="0" speed="9.26" length="14.34" shape="505.44,500.89 505.15,500.85 501.40,498.60 499.15,494.85 498.40,489.60"/>
    </edge>
    <edge id=":J8_8" function="internal">
        <lane id=":J8_8_0" index="0" speed="6.51" length="9.03" shape="504.80,489.60 505.15,492.05 506.20,493.80 507.95,494.85 510.40,495.20"/>
    </edge>
    <edge id=":J8_9" function="internal">
        <lane id=":J8_9_0" index="0" speed="13.89" length="20.80" shape="504.80,489.60 504.80,510.40"/>
        <lane id=":J8_9_1" index="1" speed="13.89" length="20.80" shape="501.60,489.60 501.60,510.40"/>
    </edge>
    <edge id=":J8_11" function="internal">
        <lane id=":J8_11_0" index="0" speed="9.26" length="5.01" shape="501.60,489.60 500.89,494.56"/>
    </edge>
    <edge id=":J8_18" function="internal">
        <lane id=":J8_18_0" index="0" speed="9.26" length="14.34" shape="500.89,494.56 500.85,494.85 498.60,498.60 494.85,500.85 489.60,501.60"/>
    </edge>
    <edge id=":J8_12" function="internal">
        <lane id=":J8_12_0" index="0" speed="6.51" length="9.03" shape="489.60,495.20 492.05,494.85 493.80,493.80 494.85,492.05 495.20,489.60"/>
    </edge>
    <edge id=":J8_13" function="internal">
        <lane id=":J8_13_0" index="0" speed="13.89" length="20.80" shape="489.60,495.20 510.40,495.20"/>
        <lane id=":J8_13_1" index="1" speed="13.89" length="20.80" shape="489.60,498.40 510.40,498.40"/>
    </edge>
    <edge id=":J8_15" function="internal">
        <lane id=":J8_15_0" index="0" speed="9.26" length="5.01" shape="489.60,498.40 494.56,499.11"/>
    </edge>
    <edge id=":J8_19" function="internal">
        <lane id=":J8_19_0" index="0" speed="9.26" length="14.34" shape="494.56,499.11 494.85,499.15 498.60,501.40 500.85,505.15 501.60,510.40"/>
    </edge>
    <edge id=":J9_0" function="internal">
        <lane id=":J9_0_0" index="0" speed="6.51" length="9.03" shape="395.20,510.40 394.85,507.95 393.80,506.20 392.05,505.15 389.60,504.80"/>
    </edge>
    <edge id=":J9_1" function="internal">
        <lane id=":J9_1_0" index="0" speed="13.89" length="20.80" shape="395.20,510.40 395.20,489.60"/>
        <lane id=":J9_1_1" index="1" speed="13.89" length="20.80" shape="398.40,510.40 398.40,489.60"/>
    </edge>
    <edge id=":J9_3" function="internal">
        <lane id=":J9_3_0" index="0" speed="9.26" length="5.01" shape="398.40,510.40 399.11,505.44"/>
    </edge>
    <edge id=":J9_16" function="internal">
        <lane id=":J9_16_0" index="0" speed="9.26" length="14.34" shape="399.11,505.44 399.15,505.15 401.40,501.40 405.15,499.15 410.40,498.40"/>
    </edge>
    <edge id=":J9_4" function="internal">
        <lane id=":J9_4_0" index="0" speed="6.51" length="9.03" shape="410.40,504.80 407.95,505.15 406.20,506.20 405.15,507.95 404.80,510.40"/>
    </edge>
    <edge id=":J9_5" function="internal">
        <lane id=":J9_5_0" index="0" speed="13.89" length="20.80" shape="410.40,504.80 389.60,504.80"/>
        <lane id=":J9_5_1" index="1" speed="13.89" length="20.80" shape="410.40,501.60 389.60,501.60"/>
    </edge>
    <edge id=":J9_7" function="internal">
        <lane id=":J9_7_0" index="0" speed="9.26" length="5.01" shape="410.40,501.60 405.44,500.89"/>
    </edge>
    <edge id=":J9_17" function="internal">
        <lane id=":J9_17_0" index="0" speed="9.26" length="14.34" shape="405.44,500.89 405.15,500.85 401.40,498.60 399.15,494.85 398.40,489.60"/>
    </edge>
    <edge id=":J9_8" function="internal">
        <lane id=":J9_8_0" index="0" speed="6.51" length="9.03" shape="404.80,489.60 405.15,492.05 406.20,493.80 407.95,494.85 410.40,495.20"/>
    </edge>
    <edge id=":J9_9" function="internal">
        <lane id=":J9_9_0" index="0" speed="13.89" length="20.80" shape="404.80,489.60 404.80,510.40"/>
        <lane id=":J9_9_1" index="1" speed="13.89" length="20.80" shape="401.60,489.60 401.60,510.40"/>
    </edge>
    <edge id=":J9_11" function="internal">
        <lane id=":J9_11_0" index="0" speed="9.26" length="5.01" shape="401.60,489.60 400.89,494.56"/>
    </edge>
    <edge id=":J9_18" function="internal">
        <lane id=":J9_18_0" index="0" speed="9.26" length="14.34" shape="400.89,494.56 400.85,494.85 398.60,498.60 394.85,500.85 389.60,501.60"/>
    </edge>
    <edge id=":J9_12" function="internal">
        <lane id=":J9_12_0" index="0" speed="6.51" length="9.03" shape="389.60,495.20 392.05,494.85 393.80,493.80 394.85,492.05 395.20,489.60"/>
    </edge>
    <edge id=":J9_13" function="internal">
        <lane id=":J9_13_0" index="0" speed="13.89" length="20.80" shape="389.60,495.20 410.40,495.20"/>
        <lane id=":J9_13_1" index="1" speed="13.89" length="20.80" shape="389.60,498.40 410.40,498.40"/>
    </edge>
    <edge id=":J9_15" function="internal">
        <lane id=":J9_15_0" index="0" speed="9.26" length="5.01" shape="389.60,498.40 394.56,499.11"/>
    </edge>
    <edge id=":J9_19" function="internal">
        <lane id=":J9_19_0" index="0" speed="9.26" length="14.34" shape="394.56,499.11 394.85,499.15 398.60,501.40 400.85,505.15 401.60,510.40"/>
    </edge>

    <edge id="-E10" from="J10" to="J9" priority="-1">
        <lane id="-E10_0" index="0" speed="13.89" length="79.20" shape="404.80,410.40 404.80,489.60"/>
        <lane id="-E10_1" index="1" speed="13.89" length="79.20" shape="401.60,410.40 401.60,489.60"/>
    </edge>
    <edge id="-E11" from="J3" to="J10" priority="-1">
        <lane id="-E11_0" index="0" speed="13.89" length="79.20" shape="404.80,310.40 404.80,389.60"/>
        <lane id="-E11_1" index="1" speed="13.89" length="79.20" shape="401.60,310.40 401.60,389.60"/>
    </edge>
    <edge id="-E12" from="J4" to="J11" priority="-1">
        <lane id="-E12_0" index="0" speed="13.89" length="79.20" shape="504.80,310.40 504.80,389.60"/>
        <lane id="-E12_1" index="1" speed="13.89" length="79.20" shape="501.60,310.40 501.60,389.60"/>
    </edge>
    <edge id="-E13" from="J11" to="J8" priority="-1">
        <lane id="-E13_0" index="0" speed="13.89" length="79.20" shape="504.80,410.40 504.80,489.60"/>
        <lane id="-E13_1" index="1" speed="13.89" length="79.20" shape="501.60,410.40 501.60,489.60"/>
    </edge>
    <edge id="-E15" from="J11" to="J10" priority="-1">
        <lane id="-E15_0" index="0" speed="13.89" length="79.20" shape="489.60,404.80 410.40,404.80"/>
        <lane id="-E15_1" index="1" speed="13.89" length="79.20" shape="489.60,401.60 410.40,401.60"/>
    </edge>
    <edge id="-E16" from="J6" to="J11" priority="-1">
        <lane id="-E16_0" index="0" speed="13.89" length="79.20" shape="589.60,404.80 510.40,404.80"/>
        <lane id="-E16_1" index="1" speed="13.89" length="79.20" shape="589.60,401.60 510.40,401.60"/>
    </edge>
    <edge id="-E21" from="J8" to="J15" priority="-1">
        <lane id="-E21_0" index="0" speed="13.89" length="79.20" shape="504.80,510.40 504.80,589.60"/>
        <lane id="-E21_1" index="1" speed="13.89" length="79.20" shape="501.60,510.40 501.60,589.60"/>
    </edge>
    <edge id="-E22" from="J9" to="J16" priority="-1">
        <lane id="-E22_0" index="0" speed="13.89" length="83.20" shape="404.80,510.40 404.80,593.60"/>
        <lane id="-E22_1" index="1" speed="13.89" length="83.20" shape="401.60,510.40 401.60,593.60"/>
    </edge>
    <edge id="-E23" from="J15" to="J16" priority="-1">
        <lane id="-E23_0" index="0" speed="13.89" length="83.20" shape="489.60,604.80 406.40,604.80"/>
        <lane id="-E23_1" index="1" speed="13.89" length="83.20" shape="489.60,601.60 406.40,601.60"/>
    </edge>
    <edge id="-E25" from="J18" to="J15" priority="-1">
        <lane id="-E25_0" index="0" speed="13.89" length="83.20" shape="593.60,604.80 510.40,604.80"/>
        <lane id="-E25_1" index="1" speed="13.89" length="83.20" shape="593.60,601.60 510.40,601.60"/>
    </edge>
    <edge id="-E3" from="J4" to="J3" priority="-1">
        <lane id="-E3_0" index="0" speed="13.89" length="79.20" shape="489.60,304.80 410.40,304.80"/>
        <lane id="-E3_1" index="1" speed="13.89" length="79.20" shape="489.60,301.60 410.40,301.60"/>
    </edge>
    <edge id="-E30" from="J10" to="J23" priority="-1">
        <lane id="-E30_0" index="0" speed="13.89" length="79.20" shape="389.60,404.80 310.40,404.80"/>
        <lane id="-E30_1" index="1" speed="13.89" length="79.20" shape="389.60,401.60 310.40,401.60"/>
    </edge>
    <edge id="-E33" from="J23" to="J25" priority="-1">
        <lane id="-E33_0" index="0" speed="13.89" length="83.20" shape="295.20,389.60 295.20,306.40"/>
        <lane id="-E33_1" index="1" speed="13.89" length="83.20" shape="298.40,389.60 298.40,306.40"/>
    </edge>
    <edge id="-E34" from="J3" to="J25" priority="-1">
        <lane id="-E34_0" index="0" speed="13.89" length="83.20" shape="389.60,304.80 306.40,304.80"/>
        <lane id="-E34_1" index="1" speed="13.89" length="83.20" shape="389.60,301.60 306.40,301.60"/>
    </edge>
    <edge id="-E36" from="J9" to="J26" priority="-1">
        <lane id="-E36_0" index="0" speed="13.89" length="83.20" shape="389.60,504.80 306.40,504.80"/>
        <lane id="-E36_1" index="1" speed="13.89" length="83.20" shape="389.60,501.60 306.40,501.60"/>
    </edge>
    <edge id="-E38" from="J26" to="J23" priority="-1">
        <lane id="-E38_0" index="0" speed="13.89" length="83.20" shape="295.20,493.60 295.20,410.40"/>